function mpc = case33bw
%CASE33BW  Power flow data for 33 bus distribution system from Baran & Wu
%   Please see CASEFORMAT for details on the case file format.
%
%   Data from ...
%       M. E. Baran and F. F. Wu, "Network reconfiguration in distribution
%       systems for loss reduction and load balancing," in IEEE Transactions
%       on Power Delivery, vol. 4, no. 2, pp. 1401-1407, Apr 1989.
%       doi: 10.1109/61.25627
%       URL: https://doi.org/10.1109/61.25627

%% MATPOWER Case Format : Version 2
mpc.version = '2';

%%-----  Power Flow Data  -----%%
%% system MVA base
mpc.baseMVA = 10;
%% 节点负荷（标幺值,24小时值）(33*24)
mpc.Pload= [0.0004666666667,0.0005,0.0005666666667,0.0006333333333,0.0006666666667,0.0007333333333,0.0007666666667,0.0008,0.0008666666667,0.0009333333333,0.0009666666667,0.001,0.0009333333333,0.0008666666667,0.0008,0.0007,0.0006666666667,0.0007333333333,0.0008,0.0009333333333,0.0008666666667,0.0007333333333,0.0006,0.0005333333333;
            0.00042,0.00045,0.00051,0.00057,0.0006,0.00066,0.00069,0.00072,0.00078,0.00084,0.00087,0.0009,0.00084,0.00078,0.00072,0.00063,0.0006,0.00066,0.00072,0.00084,0.00078,0.00066,0.00054,0.00048;
            0.00056,0.0006,0.00068,0.00076,0.0008,0.00088,0.00092,0.00096,0.00104,0.00112,0.00116,0.0012,0.00112,0.00104,0.00096,0.00084,0.0008,0.00088,0.00096,0.00112,0.00104,0.00088,0.00072,0.00064;
            0.00028,0.0003,0.00034,0.00038,0.0004,0.00044,0.00046,0.00048,0.00052,0.00056,0.00058,0.0006,0.00056,0.00052,0.00048,0.00042,0.0004,0.00044,0.00048,0.00056,0.00052,0.00044,0.00036,0.00032;
            0.00028,0.0003,0.00034,0.00038,0.0004,0.00044,0.00046,0.00048,0.00052,0.00056,0.00058,0.0006,0.00056,0.00052,0.00048,0.00042,0.0004,0.00044,0.00048,0.00056,0.00052,0.00044,0.00036,0.00032;
            0.0009333333333,0.001,0.001133333333,0.001266666667,0.001333333333,0.001466666667,0.001533333333,0.0016,0.001733333333,0.001866666667,0.001933333333,0.002,0.001866666667,0.001733333333,0.0016,0.0014,0.001333333333,0.001466666667,0.0016,0.001866666667,0.001733333333,0.001466666667,0.0012,0.001066666667;
            0.0009333333333,0.001,0.001133333333,0.001266666667,0.001333333333,0.001466666667,0.001533333333,0.0016,0.001733333333,0.001866666667,0.001933333333,0.002,0.001866666667,0.001733333333,0.0016,0.0014,0.001333333333,0.001466666667,0.0016,0.001866666667,0.001733333333,0.001466666667,0.0012,0.001066666667;
            0.00028,0.0003,0.00034,0.00038,0.0004,0.00044,0.00046,0.00048,0.00052,0.00056,0.00058,0.0006,0.00056,0.00052,0.00048,0.00042,0.0004,0.00044,0.00048,0.00056,0.00052,0.00044,0.00036,0.00032;
            0.00028,0.0003,0.00034,0.00038,0.0004,0.00044,0.00046,0.00048,0.00052,0.00056,0.00058,0.0006,0.00056,0.00052,0.00048,0.00042,0.0004,0.00044,0.00048,0.00056,0.00052,0.00044,0.00036,0.00032;
            0.00021,0.000225,0.000255,0.000285,0.0003,0.00033,0.000345,0.00036,0.00039,0.00042,0.000435,0.00045,0.00042,0.00039,0.00036,0.000315,0.0003,0.00033,0.00036,0.00042,0.00039,0.00033,0.00027,0.00024;
            0.00028,0.0003,0.00034,0.00038,0.0004,0.00044,0.00046,0.00048,0.00052,0.00056,0.00058,0.0006,0.00056,0.00052,0.00048,0.00042,0.0004,0.00044,0.00048,0.00056,0.00052,0.00044,0.00036,0.00032;
            0.00028,0.0003,0.00034,0.00038,0.0004,0.00044,0.00046,0.00048,0.00052,0.00056,0.00058,0.0006,0.00056,0.00052,0.00048,0.00042,0.0004,0.00044,0.00048,0.00056,0.00052,0.00044,0.00036,0.00032;
            0.00056,0.0006,0.00068,0.00076,0.0008,0.00088,0.00092,0.00096,0.00104,0.00112,0.00116,0.0012,0.00112,0.00104,0.00096,0.00084,0.0008,0.00088,0.00096,0.00112,0.00104,0.00088,0.00072,0.00064;
            0.00028,0.0003,0.00034,0.00038,0.0004,0.00044,0.00046,0.00048,0.00052,0.00056,0.00058,0.0006,0.00056,0.00052,0.00048,0.00042,0.0004,0.00044,0.00048,0.00056,0.00052,0.00044,0.00036,0.00032;
            0.00028,0.0003,0.00034,0.00038,0.0004,0.00044,0.00046,0.00048,0.00052,0.00056,0.00058,0.0006,0.00056,0.00052,0.00048,0.00042,0.0004,0.00044,0.00048,0.00056,0.00052,0.00044,0.00036,0.00032;
            0.00028,0.0003,0.00034,0.00038,0.0004,0.00044,0.00046,0.00048,0.00052,0.00056,0.00058,0.0006,0.00056,0.00052,0.00048,0.00042,0.0004,0.00044,0.00048,0.00056,0.00052,0.00044,0.00036,0.00032;
            0.00042,0.00045,0.00051,0.00057,0.0006,0.00066,0.00069,0.00072,0.00078,0.00084,0.00087,0.0009,0.00084,0.00078,0.00072,0.00063,0.0006,0.00066,0.00072,0.00084,0.00078,0.00066,0.00054,0.00048;
            0.00042,0.00045,0.00051,0.00057,0.0006,0.00066,0.00069,0.00072,0.00078,0.00084,0.00087,0.0009,0.00084,0.00078,0.00072,0.00063,0.0006,0.00066,0.00072,0.00084,0.00078,0.00066,0.00054,0.00048;
            0.00042,0.00045,0.00051,0.00057,0.0006,0.00066,0.00069,0.00072,0.00078,0.00084,0.00087,0.0009,0.00084,0.00078,0.00072,0.00063,0.0006,0.00066,0.00072,0.00084,0.00078,0.00066,0.00054,0.00048;
            0.00042,0.00045,0.00051,0.00057,0.0006,0.00066,0.00069,0.00072,0.00078,0.00084,0.00087,0.0009,0.00084,0.00078,0.00072,0.00063,0.0006,0.00066,0.00072,0.00084,0.00078,0.00066,0.00054,0.00048;
            0.00042,0.00045,0.00051,0.00057,0.0006,0.00066,0.00069,0.00072,0.00078,0.00084,0.00087,0.0009,0.00084,0.00078,0.00072,0.00063,0.0006,0.00066,0.00072,0.00084,0.00078,0.00066,0.00054,0.00048;
            0.00042,0.00045,0.00051,0.00057,0.0006,0.00066,0.00069,0.00072,0.00078,0.00084,0.00087,0.0009,0.00084,0.00078,0.00072,0.00063,0.0006,0.00066,0.00072,0.00084,0.00078,0.00066,0.00054,0.00048;
            0.00196,0.0021,0.00238,0.00266,0.0028,0.00308,0.00322,0.00336,0.00364,0.00392,0.00406,0.0042,0.00392,0.00364,0.00336,0.00294,0.0028,0.00308,0.00336,0.00392,0.00364,0.00308,0.00252,0.00224;
            0.00196,0.0021,0.00238,0.00266,0.0028,0.00308,0.00322,0.00336,0.00364,0.00392,0.00406,0.0042,0.00392,0.00364,0.00336,0.00294,0.0028,0.00308,0.00336,0.00392,0.00364,0.00308,0.00252,0.00224;
            0.00028,0.0003,0.00034,0.00038,0.0004,0.00044,0.00046,0.00048,0.00052,0.00056,0.00058,0.0006,0.00056,0.00052,0.00048,0.00042,0.0004,0.00044,0.00048,0.00056,0.00052,0.00044,0.00036,0.00032;
            0.00028,0.0003,0.00034,0.00038,0.0004,0.00044,0.00046,0.00048,0.00052,0.00056,0.00058,0.0006,0.00056,0.00052,0.00048,0.00042,0.0004,0.00044,0.00048,0.00056,0.00052,0.00044,0.00036,0.00032;
            0.00028,0.0003,0.00034,0.00038,0.0004,0.00044,0.00046,0.00048,0.00052,0.00056,0.00058,0.0006,0.00056,0.00052,0.00048,0.00042,0.0004,0.00044,0.00048,0.00056,0.00052,0.00044,0.00036,0.00032;
            0.00056,0.0006,0.00068,0.00076,0.0008,0.00088,0.00092,0.00096,0.00104,0.00112,0.00116,0.0012,0.00112,0.00104,0.00096,0.00084,0.0008,0.00088,0.00096,0.00112,0.00104,0.00088,0.00072,0.00064;
            0.0009333333333,0.001,0.001133333333,0.001266666667,0.001333333333,0.001466666667,0.001533333333,0.0016,0.001733333333,0.001866666667,0.001933333333,0.002,0.001866666667,0.001733333333,0.0016,0.0014,0.001333333333,0.001466666667,0.0016,0.001866666667,0.001733333333,0.001466666667,0.0012,0.001066666667;
            0.0007,0.00075,0.00085,0.00095,0.001,0.0011,0.00115,0.0012,0.0013,0.0014,0.00145,0.0015,0.0014,0.0013,0.0012,0.00105,0.001,0.0011,0.0012,0.0014,0.0013,0.0011,0.0009,0.0008;
            0.00098,0.00105,0.00119,0.00133,0.0014,0.00154,0.00161,0.00168,0.00182,0.00196,0.00203,0.0021,0.00196,0.00182,0.00168,0.00147,0.0014,0.00154,0.00168,0.00196,0.00182,0.00154,0.00126,0.00112;
            0.00028,0.0003,0.00034,0.00038,0.0004,0.00044,0.00046,0.00048,0.00052,0.00056,0.00058,0.0006,0.00056,0.00052,0.00048,0.00042,0.0004,0.00044,0.00048,0.00056,0.00052,0.00044,0.00036,0.00032;
            0,0,0,0,0,0,0,0,0,0,0,0,0,0,0,0,0,0,0,0,0,0,0,0];
%33*24
mpc.Qload= [0.00028,0.0003,0.00034,0.00038,0.0004,0.00044,0.00046,0.00048,0.00052,0.00056,0.00058,0.0006,0.00056,0.00052,0.00048,0.00042,0.0004,0.00044,0.00048,0.00056,0.00052,0.00044,0.00036,0.00032;
            0.0001866666667,0.0002,0.0002266666667,0.0002533333333,0.0002666666667,0.0002933333333,0.0003066666667,0.00032,0.0003466666667,0.0003733333333,0.0003866666667,0.0004,0.0003733333333,0.0003466666667,0.00032,0.00028,0.0002666666667,0.0002933333333,0.00032,0.0003733333333,0.0003466666667,0.0002933333333,0.00024,0.0002133333333;
            0.0003733333333,0.0004,0.0004533333333,0.0005066666667,0.0005333333333,0.0005866666667,0.0006133333333,0.00064,0.0006933333333,0.0007466666667,0.0007733333333,0.0008,0.0007466666667,0.0006933333333,0.00064,0.00056,0.0005333333333,0.0005866666667,0.00064,0.0007466666667,0.0006933333333,0.0005866666667,0.00048,0.0004266666667;
            0.00014,0.00015,0.00017,0.00019,0.0002,0.00022,0.00023,0.00024,0.00026,0.00028,0.00029,0.0003,0.00028,0.00026,0.00024,0.00021,0.0002,0.00022,0.00024,0.00028,0.00026,0.00022,0.00018,0.00016;
            9.333333333e-05,0.0001,0.0001133333333,0.0001266666667,0.0001333333333,0.0001466666667,0.0001533333333,0.00016,0.0001733333333,0.0001866666667,0.0001933333333,0.0002,0.0001866666667,0.0001733333333,0.00016,0.00014,0.0001333333333,0.0001466666667,0.00016,0.0001866666667,0.0001733333333,0.0001466666667,0.00012,0.0001066666667;
            0.0004666666667,0.0005,0.0005666666667,0.0006333333333,0.0006666666667,0.0007333333333,0.0007666666667,0.0008,0.0008666666667,0.0009333333333,0.0009666666667,0.001,0.0009333333333,0.0008666666667,0.0008,0.0007,0.0006666666667,0.0007333333333,0.0008,0.0009333333333,0.0008666666667,0.0007333333333,0.0006,0.0005333333333;
            0.0004666666667,0.0005,0.0005666666667,0.0006333333333,0.0006666666667,0.0007333333333,0.0007666666667,0.0008,0.0008666666667,0.0009333333333,0.0009666666667,0.001,0.0009333333333,0.0008666666667,0.0008,0.0007,0.0006666666667,0.0007333333333,0.0008,0.0009333333333,0.0008666666667,0.0007333333333,0.0006,0.0005333333333;
            9.333333333e-05,0.0001,0.0001133333333,0.0001266666667,0.0001333333333,0.0001466666667,0.0001533333333,0.00016,0.0001733333333,0.0001866666667,0.0001933333333,0.0002,0.0001866666667,0.0001733333333,0.00016,0.00014,0.0001333333333,0.0001466666667,0.00016,0.0001866666667,0.0001733333333,0.0001466666667,0.00012,0.0001066666667;
            9.333333333e-05,0.0001,0.0001133333333,0.0001266666667,0.0001333333333,0.0001466666667,0.0001533333333,0.00016,0.0001733333333,0.0001866666667,0.0001933333333,0.0002,0.0001866666667,0.0001733333333,0.00016,0.00014,0.0001333333333,0.0001466666667,0.00016,0.0001866666667,0.0001733333333,0.0001466666667,0.00012,0.0001066666667;
            0.00014,0.00015,0.00017,0.00019,0.0002,0.00022,0.00023,0.00024,0.00026,0.00028,0.00029,0.0003,0.00028,0.00026,0.00024,0.00021,0.0002,0.00022,0.00024,0.00028,0.00026,0.00022,0.00018,0.00016;
            0.0001633333333,0.000175,0.0001983333333,0.0002216666667,0.0002333333333,0.0002566666667,0.0002683333333,0.00028,0.0003033333333,0.0003266666667,0.0003383333333,0.00035,0.0003266666667,0.0003033333333,0.00028,0.000245,0.0002333333333,0.0002566666667,0.00028,0.0003266666667,0.0003033333333,0.0002566666667,0.00021,0.0001866666667;
            0.0001633333333,0.000175,0.0001983333333,0.0002216666667,0.0002333333333,0.0002566666667,0.0002683333333,0.00028,0.0003033333333,0.0003266666667,0.0003383333333,0.00035,0.0003266666667,0.0003033333333,0.00028,0.000245,0.0002333333333,0.0002566666667,0.00028,0.0003266666667,0.0003033333333,0.0002566666667,0.00021,0.0001866666667;
            0.0003733333333,0.0004,0.0004533333333,0.0005066666667,0.0005333333333,0.0005866666667,0.0006133333333,0.00064,0.0006933333333,0.0007466666667,0.0007733333333,0.0008,0.0007466666667,0.0006933333333,0.00064,0.00056,0.0005333333333,0.0005866666667,0.00064,0.0007466666667,0.0006933333333,0.0005866666667,0.00048,0.0004266666667;
            4.666666667e-05,5.e-05,5.666666667e-05,6.333333333e-05,6.666666667e-05,7.333333333e-05,7.666666667e-05,8.e-05,8.666666667e-05,9.333333333e-05,9.666666667e-05,0.0001,9.333333333e-05,8.666666667e-05,8.e-05,7.e-05,6.666666667e-05,7.333333333e-05,8.e-05,9.333333333e-05,8.666666667e-05,7.333333333e-05,6.e-05,5.333333333e-05;
            9.333333333e-05,0.0001,0.0001133333333,0.0001266666667,0.0001333333333,0.0001466666667,0.0001533333333,0.00016,0.0001733333333,0.0001866666667,0.0001933333333,0.0002,0.0001866666667,0.0001733333333,0.00016,0.00014,0.0001333333333,0.0001466666667,0.00016,0.0001866666667,0.0001733333333,0.0001466666667,0.00012,0.0001066666667;
            9.333333333e-05,0.0001,0.0001133333333,0.0001266666667,0.0001333333333,0.0001466666667,0.0001533333333,0.00016,0.0001733333333,0.0001866666667,0.0001933333333,0.0002,0.0001866666667,0.0001733333333,0.00016,0.00014,0.0001333333333,0.0001466666667,0.00016,0.0001866666667,0.0001733333333,0.0001466666667,0.00012,0.0001066666667;
            0.0001866666667,0.0002,0.0002266666667,0.0002533333333,0.0002666666667,0.0002933333333,0.0003066666667,0.00032,0.0003466666667,0.0003733333333,0.0003866666667,0.0004,0.0003733333333,0.0003466666667,0.00032,0.00028,0.0002666666667,0.0002933333333,0.00032,0.0003733333333,0.0003466666667,0.0002933333333,0.00024,0.0002133333333;
            0.0001866666667,0.0002,0.0002266666667,0.0002533333333,0.0002666666667,0.0002933333333,0.0003066666667,0.00032,0.0003466666667,0.0003733333333,0.0003866666667,0.0004,0.0003733333333,0.0003466666667,0.00032,0.00028,0.0002666666667,0.0002933333333,0.00032,0.0003733333333,0.0003466666667,0.0002933333333,0.00024,0.0002133333333;
            0.0001866666667,0.0002,0.0002266666667,0.0002533333333,0.0002666666667,0.0002933333333,0.0003066666667,0.00032,0.0003466666667,0.0003733333333,0.0003866666667,0.0004,0.0003733333333,0.0003466666667,0.00032,0.00028,0.0002666666667,0.0002933333333,0.00032,0.0003733333333,0.0003466666667,0.0002933333333,0.00024,0.0002133333333;
            0.0001866666667,0.0002,0.0002266666667,0.0002533333333,0.0002666666667,0.0002933333333,0.0003066666667,0.00032,0.0003466666667,0.0003733333333,0.0003866666667,0.0004,0.0003733333333,0.0003466666667,0.00032,0.00028,0.0002666666667,0.0002933333333,0.00032,0.0003733333333,0.0003466666667,0.0002933333333,0.00024,0.0002133333333;
            0.0001866666667,0.0002,0.0002266666667,0.0002533333333,0.0002666666667,0.0002933333333,0.0003066666667,0.00032,0.0003466666667,0.0003733333333,0.0003866666667,0.0004,0.0003733333333,0.0003466666667,0.00032,0.00028,0.0002666666667,0.0002933333333,0.00032,0.0003733333333,0.0003466666667,0.0002933333333,0.00024,0.0002133333333;
            0.0002333333333,0.00025,0.0002833333333,0.0003166666667,0.0003333333333,0.0003666666667,0.0003833333333,0.0004,0.0004333333333,0.0004666666667,0.0004833333333,0.0005,0.0004666666667,0.0004333333333,0.0004,0.00035,0.0003333333333,0.0003666666667,0.0004,0.0004666666667,0.0004333333333,0.0003666666667,0.0003,0.0002666666667;
            0.0009333333333,0.001,0.001133333333,0.001266666667,0.001333333333,0.001466666667,0.001533333333,0.0016,0.001733333333,0.001866666667,0.001933333333,0.002,0.001866666667,0.001733333333,0.0016,0.0014,0.001333333333,0.001466666667,0.0016,0.001866666667,0.001733333333,0.001466666667,0.0012,0.001066666667;
            0.0009333333333,0.001,0.001133333333,0.001266666667,0.001333333333,0.001466666667,0.001533333333,0.0016,0.001733333333,0.001866666667,0.001933333333,0.002,0.001866666667,0.001733333333,0.0016,0.0014,0.001333333333,0.001466666667,0.0016,0.001866666667,0.001733333333,0.001466666667,0.0012,0.001066666667;
            0.0001166666667,0.000125,0.0001416666667,0.0001583333333,0.0001666666667,0.0001833333333,0.0001916666667,0.0002,0.0002166666667,0.0002333333333,0.0002416666667,0.00025,0.0002333333333,0.0002166666667,0.0002,0.000175,0.0001666666667,0.0001833333333,0.0002,0.0002333333333,0.0002166666667,0.0001833333333,0.00015,0.0001333333333;
            0.0001166666667,0.000125,0.0001416666667,0.0001583333333,0.0001666666667,0.0001833333333,0.0001916666667,0.0002,0.0002166666667,0.0002333333333,0.0002416666667,0.00025,0.0002333333333,0.0002166666667,0.0002,0.000175,0.0001666666667,0.0001833333333,0.0002,0.0002333333333,0.0002166666667,0.0001833333333,0.00015,0.0001333333333;
            9.333333333e-05,0.0001,0.0001133333333,0.0001266666667,0.0001333333333,0.0001466666667,0.0001533333333,0.00016,0.0001733333333,0.0001866666667,0.0001933333333,0.0002,0.0001866666667,0.0001733333333,0.00016,0.00014,0.0001333333333,0.0001466666667,0.00016,0.0001866666667,0.0001733333333,0.0001466666667,0.00012,0.0001066666667;
            0.0003266666667,0.00035,0.0003966666667,0.0004433333333,0.0004666666667,0.0005133333333,0.0005366666667,0.00056,0.0006066666667,0.0006533333333,0.0006766666667,0.0007,0.0006533333333,0.0006066666667,0.00056,0.00049,0.0004666666667,0.0005133333333,0.00056,0.0006533333333,0.0006066666667,0.0005133333333,0.00042,0.0003733333333;
            0.0028,0.003,0.0034,0.0038,0.004,0.0044,0.0046,0.0048,0.0052,0.0056,0.0058,0.006,0.0056,0.0052,0.0048,0.0042,0.004,0.0044,0.0048,0.0056,0.0052,0.0044,0.0036,0.0032;
            0.0003266666667,0.00035,0.0003966666667,0.0004433333333,0.0004666666667,0.0005133333333,0.0005366666667,0.00056,0.0006066666667,0.0006533333333,0.0006766666667,0.0007,0.0006533333333,0.0006066666667,0.00056,0.00049,0.0004666666667,0.0005133333333,0.00056,0.0006533333333,0.0006066666667,0.0005133333333,0.00042,0.0003733333333;
            0.0004666666667,0.0005,0.0005666666667,0.0006333333333,0.0006666666667,0.0007333333333,0.0007666666667,0.0008,0.0008666666667,0.0009333333333,0.0009666666667,0.001,0.0009333333333,0.0008666666667,0.0008,0.0007,0.0006666666667,0.0007333333333,0.0008,0.0009333333333,0.0008666666667,0.0007333333333,0.0006,0.0005333333333;
            0.0001866666667,0.0002,0.0002266666667,0.0002533333333,0.0002666666667,0.0002933333333,0.0003066666667,0.00032,0.0003466666667,0.0003733333333,0.0003866666667,0.0004,0.0003733333333,0.0003466666667,0.00032,0.00028,0.0002666666667,0.0002933333333,0.00032,0.0003733333333,0.0003466666667,0.0002933333333,0.00024,0.0002133333333;
            0,0,0,0,0,0,0,0,0,0,0,0,0,0,0,0,0,0,0,0,0,0,0,0];
%% bus data
%	bus_i	type	Pd	Qd	Gs	Bs	area	Vm	Va	baseKV	zone	Vmax	Vmin
mpc.bus = [ %% (Pd and Qd are specified in kW & kVAr here, converted to MW & MVAr below)
	1	3	0	0	0	0	1	1	0	12.66	1	1	1;
	2	1	100	60	0	0	1	1	0	12.66	1	1.1	0.9;
	3	1	90	40	0	0	1	1	0	12.66	1	1.1	0.9;
	4	1	120	80	0	0	1	1	0	12.66	1	1.1	0.9;
	5	1	60	30	0	0	1	1	0	12.66	1	1.1	0.9;
	6	1	60	20	0	0	1	1	0	12.66	1	1.1	0.9;
	7	1	200	100	0	0	1	1	0	12.66	1	1.1	0.9;
	8	1	200	100	0	0	1	1	0	12.66	1	1.1	0.9;
	9	1	60	20	0	0	1	1	0	12.66	1	1.1	0.9;
	10	1	60	20	0	0	1	1	0	12.66	1	1.1	0.9;
	11	1	45	30	0	0	1	1	0	12.66	1	1.1	0.9;
	12	1	60	35	0	0	1	1	0	12.66	1	1.1	0.9;
	13	1	60  	35	0	0	1	1	0	12.66	1	1.1	0.9;
	14	1	120	80	0	0	1	1	0	12.66	1	1.1	0.9;
	15	1	60	10	0	0	1	1	0	12.66	1	1.1	0.9;
	16	1	60	20	0	0	1	1	0	12.66	1	1.1	0.9;
	17	1	60  	20	0	0	1	1	0	12.66	1	1.1	0.9;
	18	1	90	40	0	0	1	1	0	12.66	1	1.1	0.9;
	19	1	90	40	0	0	1	1	0	12.66	1	1.1	0.9;
	20	1	90	40	0	0	1	1	0	12.66	1	1.1	0.9;
	21	1	90	40	0	0	1	1	0	12.66	1	1.1	0.9;
	22	1	90	40	0	0	1	1	0	12.66	1	1.1	0.9;
	23	1	90	50	0	0	1	1	0	12.66	1	1.1	0.9;
	24	1	420	200	0	0	1	1	0	12.66	1	1.1	0.9;
	25	1	420 	200	0	0	1	1	0	12.66	1	1.1	0.9;
	26	1	60	25	0	0	1	1	0	12.66	1	1.1	0.9;
	27	1	60	25	0	0	1	1	0	12.66	1	1.1	0.9;
	28	1	60	20	0	0	1	1	0	12.66	1	1.1	0.9;
	29	1	120	70	0	0	1	1	0	12.66	1	1.1	0.9;
	30	1	200	600	0	0	1	1	0	12.66	1	1.1	0.9;
	31	1	150	70	0	0	1	1	0	12.66	1	1.1	0.9;
	32	1	210	100	0	0	1	1	0	12.66	1	1.1	0.9;
	33	1	60	40	0	0	1	1	0	12.66	1	1.1	0.9;
];

% mpc.bus = [ %% (Pd and Qd are specified in kW & kVAr here, converted to MW & MVAr below)
% 1	3	0 	0 	0	0	1	1	0	12.66	1	1	1;
% 2	1	43 	10 	0	0	1	1	0	12.66	1	1.1	0.9;
% 3	1	43 	7 	0	0	1	1	0	12.66	1	1.1	0.9;
% 4	1	57 	14 	0	0	1	1	0	12.66	1	1.1	0.9;
% 5	1	33 	5 	0	0	1	1	0	12.66	1	1.1	0.9;
% 6	1	27 	3 	0	0	1	1	0	12.66	1	1.1	0.9;
% 7	1	89 	17 	0	0	1	1	0	12.66	1	1.1	0.9;
% 8	1	93 	17 	0	0	1	1	0	12.66	1	1.1	0.9;
% 9	1	41 	3 	0	0	1	1	0	12.66	1	1.1	0.9;
% 10	1	42 	3 	0	0	1	1	0	12.66	1	1.1	0.9;
% 11	1	35 	5 	0	0	1	1	0	12.66	1	1.1	0.9;
% 12	1	-430 	6 	0	0	1	1	0	12.66	1	1.1	0.9;
% 13	1	41 	6 	0	0	1	1	0	12.66	1	1.1	0.9;
% 14	1	73 	14 	0	0	1	1	0	12.66	1	1.1	0.9;
% 15	1	49 	2 	0	0	1	1	0	12.66	1	1.1	0.9;
% 16	1	20 	3 	0	0	1	1	0	12.66	1	1.1	0.9;
% 17	1	47 	3 	0	0	1	1	0	12.66	1	1.1	0.9;
% 18	1	57 	7 	0	0	1	1	0	12.66	1	1.1	0.9;
% 19	1	42 	7 	0	0	1	1	0	12.66	1	1.1	0.9;
% 20	1	44 	7 	0	0	1	1	0	12.66	1	1.1	0.9;
% 21	1	45 	7 	0	0	1	1	0	12.66	1	1.1	0.9;
% 22	1	44 	7 	0	0	1	1	0	12.66	1	1.1	0.9;
% 23	1	45 	8 	0	0	1	1	0	12.66	1	1.1	0.9;
% 24	1	159 	34 	0	0	1	1	0	12.66	1	1.1	0.9;
% 25	1	179 	34 	0	0	1	1	0	12.66	1	1.1	0.9;
% 26	1	23 	4 	0	0	1	1	0	12.66	1	1.1	0.9;
% 27	1	36 	4 	0	0	1	1	0	12.66	1	1.1	0.9;
% 28	1	34 	3 	0	0	1	1	0	12.66	1	1.1	0.9;
% 29	1	66 	12 	0	0	1	1	0	12.66	1	1.1	0.9;
% 30	1	99 	102 	0	0	1	1	0	12.66	1	1.1	0.9;
% 31	1	80 	12 	0	0	1	1	0	12.66	1	1.1	0.9;
% 32	1	104 	17 	0	0	1	1	0	12.66	1	1.1	0.9;
% 33	1	44 	7 	0	0	1	1	0	12.66	1	1.1	0.9;
% 
% ];

%% generator data
%	bus	Pg	Qg	Qmax	Qmin	Vg	mBase	status	Pmax	Pmin	Pc1	Pc2	Qc1min	Qc1max	Qc2min	Qc2max	ramp_agc	ramp_10	ramp_30	ramp_q	apf
mpc.gen = [
	1	0	0	10	-10	1	100	1	10	0	0	0	0	0	0	0	0	0	0	0	0;
];

%% branch data
%	fbus	tbus	r	x	b	rateA	rateB	rateC	ratio	angle	status	angmin	angmax
mpc.branch = [  %% (r and x specified in ohms here, converted to p.u. below)
	1	2	0.0922	0.0470	0	0	0	0	0	0	1	-360	360;
	2	3	0.4930	0.2511	0	0	0	0	0	0	1	-360	360;
	3	4	0.3660	0.1864	0	0	0	0	0	0	1	-360	360;
	4	5	0.3811	0.1941	0	0	0	0	0	0	1	-360	360;
	5	6	0.8190	0.7070	0	0	0	0	0	0	1	-360	360;
	6	7	0.1872	0.6188	0	0	0	0	0	0	1	-360	360;
	7	8	0.7114	0.2351	0	0	0	0	0	0	1	-360	360;
	8	9	1.0300	0.7400	0	0	0	0	0	0	1	-360	360;
	9	10	1.0440	0.7400	0	0	0	0	0	0	1	-360	360;
	10	11	0.1966	0.0650	0	0	0	0	0	0	1	-360	360;
	11	12	0.3744	0.1238	0	0	0	0	0	0	1	-360	360;
	12	13	1.4680	1.1550	0	0	0	0	0	0	1	-360	360;
	13	14	0.5416	0.7129	0	0	0	0	0	0	1	-360	360;
	14	15	0.5910	0.5260	0	0	0	0	0	0	1	-360	360;
	15	16	0.7463	0.5450	0	0	0	0	0	0	1	-360	360;
	16	17	1.2890	1.7210	0	0	0	0	0	0	1	-360	360;
	17	18	0.7320	0.5740	0	0	0	0	0	0	1	-360	360;
	2	19	0.1640	0.1565	0	0	0	0	0	0	1	-360	360;
	19	20	1.5042	1.3554	0	0	0	0	0	0	1	-360	360;
	20	21	0.4095	0.4784	0	0	0	0	0	0	1	-360	360;
	21	22	0.7089	0.9373	0	0	0	0	0	0	1	-360	360;
	3	23	0.4512	0.3083	0	0	0	0	0	0	1	-360	360;
	23	24	0.8980	0.7091	0	0	0	0	0	0	1	-360	360;
	24	25	0.8960	0.7011	0	0	0	0	0	0	1	-360	360;
	6	26	0.2030	0.1034	0	0	0	0	0	0	1	-360	360;
	26	27	0.2842	0.1447	0	0	0	0	0	0	1	-360	360;
	27	28	1.0590	0.9337	0	0	0	0	0	0	1	-360	360;
	28	29	0.8042	0.7006	0	0	0	0	0	0	1	-360	360;
	29	30	0.5075	0.2585	0	0	0	0	0	0	1	-360	360;
	30	31	0.9744	0.9630	0	0	0	0	0	0	1	-360	360;
	31	32	0.3105	0.3619	0	0	0	0	0	0	1	-360	360;
	32	33	0.3410	0.5302	0	0	0	0	0	0	1	-360	360;
    
    % 动态重构部分可开断的连接情况
    8	21	2.0000	2.0000	0	0	0	0	0	0	0	-360	360;
	9  	15	2.0000	2.0000	0	0	0	0	0	0	0	-360	360;
	12 	22	2.0000	2.0000	0	0	0	0	0	0	0	-360	360;
	18 	33	0.5000	0.5000	0	0	0	0	0	0	0	-360	360;
	25 	29	0.5000	0.5000	0	0	0	0	0	0	0	-360	360;

];


%%-----  OPF Data  -----%%
%% generator cost data
%	1	startup	shutdown	n	x1	y1	...	xn	yn
%	2	startup	shutdown	n	c(n-1)	...	c0
mpc.gencost = [
	2	0	0	3	0	20	0;
];

%% 绝对绝对新加入的风光数据
%% 风机总出力
% 24列是因为24个时间段-风机容量可能为 1.5 MW
mpc.wind = [1.4 1.53 1.45 1.34 1.26 1.13 1.03 0.75 0.55 0.35 0.45 0.43 0.35 0.32 0.30 0.33 0.35 0.43 0.55 0.72 0.75 0.79 0.82 0.95];% 单位应该是MW
% plot(mpc.wind)
%% 光伏总出力
% 24列是因为24个时间段-光伏容量可能为 1 MW
mpc.pv = [0 0 0 0 0 0.185 0.195 0.3 0.48 0.63 0.7 0.76 0.83 0.76 0.7 0.63 0.48 0.3 0 0 0 0 0 0 ];       
% plot(mpc.pv)

%% 绝对绝对新导入的负荷数据
%% 负荷需求
% 24列是因为24个时间段
mpc.pload = [1.8 1.35 1.2 1.15 1.1 1.35 1.45 1.5 1.65 1.9 2.0 2.1 2.35 2.55 2.25 2.15 2.3 2.6 3.35 3.85 4.0 3.6 3.25 2.7];
%% 初始各节点有功负荷容量-如果更简单明晰后续可以和bus程序合一下
% 和为3715 + j2300 kVA-不过是在什么都不接情况下的节点功率罢了
mpc.pload_prim = [0;100;90;120;60;60;200;200;60;60;45;60;60;120;60;60;60;90;90;90;90;90;90;420;420;60;60;60;120;200;150;210;60];
mpc.qload_prim = [0;60;40;80;30;20;100;100;20;20;30;35;35;80;10;20;20;40;40;40;40;40;50;200;200;25;25;20;70;600;70;100;40];
%% convert branch impedances from Ohms to p.u.
[PQ, PV, REF, NONE, BUS_I, BUS_TYPE, PD, QD, GS, BS, BUS_AREA, VM, ...
    VA, BASE_KV, ZONE, VMAX, VMIN, LAM_P, LAM_Q, MU_VMAX, MU_VMIN] = idx_bus;
[F_BUS, T_BUS, BR_R, BR_X, BR_B, RATE_A, RATE_B, RATE_C, ...
    TAP, SHIFT, BR_STATUS, PF, QF, PT, QT, MU_SF, MU_ST, ...
    ANGMIN, ANGMAX, MU_ANGMIN, MU_ANGMAX] = idx_brch;
Vbase = mpc.bus(1, BASE_KV) * 1e3;      %% in Volts
Sbase = mpc.baseMVA * 1e6;              %% in VA
mpc.branch(:, [BR_R BR_X]) = mpc.branch(:, [BR_R BR_X]) / (Vbase^2 / Sbase);

%% convert loads from kW to MW
mpc.bus(:, [PD, QD]) = mpc.bus(:, [PD, QD]) / 1e3;
